<?xml version="1.0" encoding="UTF-8"?>

<!-- generated on 2024-02-17 15:31:08.892293 by randomTrips.py v1_19_0+0000-baa66a0f364
<configuration>
    <net-file value="jaipur.net.xml"/>
    <route-file value="jaipur.rou.xml"/>
    <length value="True"/>
    <end value="100.0"/>
</configuration>
-->

<!-- generated on 2024-02-17 15:31:08 by Eclipse SUMO duarouter Version 1.19.0
<configuration xmlns:xsi="http://www.w3.org/2001/XMLSchema-instance" xsi:noNamespaceSchemaLocation="http://sumo.dlr.de/xsd/duarouterConfiguration.xsd">

    <input>
        <net-file value="jaipur.net.xml"/>
        <route-files value="trips.trips.xml"/>
    </input>

    <output>
        <output-file value="jaipur.rou.xml"/>
        <alternatives-output value="NUL"/>
    </output>

    <time>
        <begin value="0"/>
        <end value="100.0"/>
    </time>

    <report>
        <no-warnings value="true"/>
        <ignore-errors value="true"/>
        <no-step-log value="true"/>
    </report>

</configuration>
--> 
<routes>
    <!-- <vehicle id="0" depart="0">
    <route id="route0" edges="-170204662#1 -170204662#2" probability="1.0"/>
    </vehicle> -->
     <vehicle id="1" depart="1">
    <route id="route1" edges="170204662#0 170204662#1" probability="1.0">
        <distribution id="0" type="dijkstra"/>
    </route>
    </vehicle>
     <vehicle id="2" depart="2">
    <route id="route2" edges="-170204662#1 28851030#0" probability="1.0"/>
    </vehicle>
     <vehicle id="3" depart="3">
    <route id="route3" edges="-170204662#1 28851030#0" probability="1.0"/>
    </vehicle>
     <vehicle id="4" depart="4">
    <route id="route4" edges="-170204662#1 28851030#0" probability="1.0"/>
    </vehicle>
     <vehicle id="5" depart="5">
    <route id="route5" edges="-170204662#1 28851030#0" probability="1.0"/>
    </vehicle>
     <vehicle id="6" depart="6">
    <route id="route6" edges="-170204662#1 28851030#0" probability="1.0"/>
    </vehicle>
     <vehicle id="7" depart="7">
    <route id="route7" edges="-170204662#1 28851030#0" probability="1.0"/>
    </vehicle>
     <vehicle id="8" depart="8">
    <route id="route8" edges="-170204662#1 28851030#0" probability="1.0"/>
    </vehicle>
     <vehicle id="9" depart="9">
    <route id="route9" edges="-170204662#1 28851030#0" probability="1.0"/>
    </vehicle>
     <vehicle id="10" depart="10">
    <route id="route10" edges="-170204662#1 28851030#0" probability="1.0"/>
    </vehicle>
     <vehicle id="11" depart="11">
    <route id="route11" edges="-170204662#1 28851030#0" probability="1.0"/>
    </vehicle>
     <vehicle id="12" depart="12">
    <route id="route12" edges="-170204662#1 28851030#0" probability="1.0"/>
    </vehicle>
     <vehicle id="13" depart="13">
    <route id="route13" edges="-170204662#1 28851030#0" probability="1.0"/>
    </vehicle>
     <vehicle id="14" depart="14">
    <route id="route14" edges="-170204662#1 28851030#0" probability="1.0"/>
    </vehicle>
     <vehicle id="15" depart="15">
    <route id="route15" edges="-170204662#1 28851030#0" probability="1.0"/>
    </vehicle>
     <vehicle id="16" depart="16">
    <route id="route16" edges="-170204662#1 28851030#0" probability="1.0"/>
    </vehicle>
     <vehicle id="17" depart="17">
    <route id="route17" edges="-170204662#1 28851030#0" probability="1.0"/>
    </vehicle>
     <vehicle id="18" depart="18">
    <route id="route18" edges="-170204662#1 28851030#0" probability="1.0"/>
    </vehicle>
     <vehicle id="19" depart="19">
    <route id="route19" edges="-170204662#1 28851030#0" probability="1.0"/>
    </vehicle>
</routes>
