<?xml version="1.0" encoding="UTF-8"?>

<!-- generated on 2024-02-16 00:37:43 by Eclipse SUMO polyconvert Version 1.19.0
<configuration xmlns:xsi="http://www.w3.org/2001/XMLSchema-instance" xsi:noNamespaceSchemaLocation="http://sumo.dlr.de/xsd/polyconvertConfiguration.xsd">

    <input>
        <net-file value="jaipur.net.xml"/>
        <osm-files value="jaipur.osm"/>
        <type-file value="osmPolyconvert.typ.xml"/>
    </input>

    <output>
        <output-file value="jaipur.poly.xml"/>
    </output>

</configuration>
-->

<additional xmlns:xsi="http://www.w3.org/2001/XMLSchema-instance" xsi:noNamespaceSchemaLocation="http://sumo.dlr.de/xsd/additional_file.xsd">
    <location netOffset="-581762.06,-2975346.54" convBoundary="0.00,-92.50,1268.13,1118.37" origBoundary="75.823342,26.896609,75.836128,26.907524" projParameter="+proj=utm +zone=43 +ellps=WGS84 +datum=WGS84 +units=m +no_defs"/>

    <poly id="375062521" type="tourism" color="207,245,201" fill="1" layer="-2.00" shape="509.919850,410.867812 503.972918,421.207985 502.465491,433.028281 505.617989,444.513527 512.945167,453.932549 523.334268,459.838072 535.212032,461.344730 546.762667,458.208025 556.235034,450.926030 562.172066,440.585816 563.679548,428.765525 560.537029,417.280329 553.199933,407.861214 542.810802,401.955667 530.932981,400.449003 519.382299,403.585724 509.919850,410.867812"/>
    <poly id="375191258" type="building" color="255,230,230" fill="1" layer="-1.00" shape="416.849796,516.420469 433.438105,511.355971 431.240030,504.263447 437.469405,502.354629 435.047703,494.529565 438.172324,493.575222 435.400644,484.595869 416.921480,490.257237 417.427308,491.877775 409.964060,494.155154 416.849796,516.420469"/>
    <poly id="375191259" type="building" color="255,230,230" fill="1" layer="-1.00" shape="601.426416,542.728493 622.933311,535.746924 614.900640,511.247506 617.090115,510.541850 614.948026,504.014580 606.608012,506.718099 604.991873,501.767201 594.382794,505.198019 596.008867,510.148981 587.748452,512.830881 589.793205,519.058431 593.296433,517.918298 601.426416,542.728493"/>
    <poly id="375191260" type="building" color="255,230,230" fill="1" layer="-1.00" shape="634.026181,367.549942 631.270769,359.135574 616.242621,364.010654 594.886733,369.121231 583.350629,359.408752 610.396661,311.921867 590.098211,302.650450 564.815428,352.353229 553.088121,350.603839 546.524724,333.735023 536.950433,336.851436 545.067830,359.069497 561.867468,361.206549 578.637066,369.446814 592.179466,382.163199 619.085678,372.691439 634.026181,367.549942"/>
    <poly id="375191261" type="building" color="255,230,230" fill="1" layer="-1.00" shape="511.945641,524.729737 510.719815,525.386332 509.828880,526.466042 509.432886,527.792682 509.572787,529.178214 510.240102,530.401042 511.326754,531.283230 512.664862,531.679678 514.056174,531.533705 514.544518,531.271054 517.539680,540.994044 521.430554,539.801043 528.996716,564.286267 546.391137,558.961349 533.879169,517.806193 533.525723,517.183572 532.956484,516.149692 532.037712,515.412601 530.907713,515.083974 529.725088,515.209157 528.688597,515.767297 527.947707,516.681834 527.612600,517.809487 527.734015,518.984437 528.156034,519.751507 530.334697,526.766385 520.234374,529.857210 519.203465,526.527384 519.768645,525.146467 519.262033,523.647766 518.114203,523.008870 512.790403,524.635573 511.945641,524.729737"/>
    <poly id="375191262" type="building" color="255,230,230" fill="1" layer="-1.00" shape="641.368269,462.582740 666.600247,453.975191 660.489608,436.245274 635.257599,444.852836 641.368269,462.582740"/>
    <poly id="375191263" type="building" color="255,230,230" fill="1" layer="-1.00" shape="690.842227,417.635637 699.482318,443.390780 705.454004,441.413942 696.813996,415.647718 690.842227,417.635637"/>
    <poly id="375191264" type="building" color="255,230,230" fill="1" layer="-1.00" shape="476.618168,403.627197 483.329733,406.960941 490.323075,393.027602 483.611503,389.693855 476.618168,403.627197"/>
    <poly id="375191265" type="building" color="255,230,230" fill="1" layer="-1.00" shape="572.443167,499.394026 587.458892,493.355739 583.862196,484.503870 568.836532,490.542097 572.443167,499.394026"/>
    <poly id="375191266" type="building" color="255,230,230" fill="1" layer="-1.00" shape="575.823048,456.426592 592.335180,464.532271 599.470765,450.123613 582.958546,442.029001 575.823048,456.426592"/>
    <poly id="375191267" type="building" color="255,230,230" fill="1" layer="-1.00" shape="663.200522,480.227389 680.358380,474.657408 677.466609,465.843363 660.308740,471.413349 663.200522,480.227389"/>
    <poly id="375191269" type="building" color="255,230,230" fill="1" layer="-1.00" shape="590.062420,573.481160 607.784933,568.103090 603.263744,553.330076 585.531283,558.708087 590.062420,573.481160"/>
    <poly id="375191270" type="building" color="255,230,230" fill="1" layer="-1.00" shape="481.883588,307.680071 477.393455,291.157163 468.836376,293.626742 469.535247,296.101466 473.504986,295.008657 477.436228,308.913754 481.883588,307.680071"/>
    <poly id="375191271" type="building" color="255,230,230" fill="1" layer="-1.00" shape="588.968363,493.365625 598.297546,489.749188 594.458682,479.965267 585.129493,483.581708 588.968363,493.365625"/>
    <poly id="375191272" type="building" color="255,230,230" fill="1" layer="-1.00" shape="482.791921,322.163553 487.640279,320.356495 483.198454,308.596978 478.350093,310.404038 482.791921,322.163553"/>
    <poly id="375191273" type="building" color="255,230,230" fill="1" layer="-1.00" shape="495.404963,364.626374 501.184342,363.202028 498.726110,353.371789 492.946655,354.807213 495.404963,364.626374"/>
    <poly id="375191274" type="building" color="255,230,230" fill="1" layer="-1.00" shape="435.340250,344.948674 463.345028,360.351461 473.263749,342.527088 445.249083,327.113139 435.340250,344.948674"/>
    <poly id="375191275" type="building" color="255,230,230" fill="1" layer="-1.00" shape="630.069834,425.711135 634.525387,438.379110 658.802964,429.931444 654.337573,417.252319 630.069834,425.711135"/>
    <poly id="375191276" type="building" color="255,230,230" fill="1" layer="-1.00" shape="488.198359,339.800150 478.490169,334.541575 448.537470,389.220802 438.006223,436.948888 448.340836,439.043530 457.192610,396.045394 488.198359,339.800150"/>
    <poly id="375191277" type="building" color="255,230,230" fill="1" layer="-1.00" shape="597.016487,476.094018 614.206264,483.838627 627.164153,455.389349 614.469923,449.656945 611.275866,456.658794 616.900211,459.187950 613.806913,465.968921 603.706929,461.416600 597.016487,476.094018"/>
    <poly id="375191278" type="building" color="255,230,230" fill="1" layer="-1.00" shape="599.499260,448.805645 609.627307,453.623992 612.889574,446.821974 614.859774,447.754266 616.128394,445.115191 610.247584,442.318509 612.291540,438.056204 606.074095,435.102242 599.499260,448.805645"/>
    <poly id="375532226" type="building" color="255,230,230" fill="1" layer="-1.00" shape="352.430145,222.350388 359.750611,216.106501 346.867848,201.168228 339.547381,207.412122 352.430145,222.350388"/>
    <poly id="375532232" type="building" color="255,230,230" fill="1" layer="-1.00" shape="323.735891,192.310754 335.540528,182.241356 319.710532,163.883259 307.905891,173.952671 323.735891,192.310754"/>
    <poly id="375532241" type="building" color="255,230,230" fill="1" layer="-1.00" shape="227.155188,166.104095 233.398134,180.411867 237.322132,178.720531 236.969962,177.898543 242.826132,175.366885 242.219440,173.978314 245.047928,172.756145 239.763854,160.658925 227.155188,166.104095"/>
    <poly id="397401408" type="building" color="255,230,230" fill="1" layer="-1.00" shape="849.961812,359.961189 862.285745,355.544924 861.435629,351.917180 861.976189,351.267193 861.654624,348.817077 860.137824,348.408341 857.344110,338.287819 853.119711,338.836065 852.778316,337.892282 846.905137,339.980469 847.246532,340.924251 843.931625,342.109860 846.865365,350.569758 846.024552,351.572236 847.369031,355.535535 848.730139,355.455861 849.961812,359.961189"/>
    <poly id="397401411" type="building" color="255,230,230" fill="1" layer="-1.00" shape="783.561874,312.979855 808.441756,300.581956 803.834093,291.435385 778.954198,303.833293 783.561874,312.979855"/>
    <poly id="397401412" type="building" color="255,230,230" fill="1" layer="-1.00" shape="762.209519,322.066794 770.200467,318.098312 763.700984,305.151028 755.710103,309.108438 762.209519,322.066794"/>
    <poly id="397401416" type="building" color="255,230,230" fill="1" layer="-1.00" shape="877.921130,351.981204 880.469980,351.001030 878.819546,346.747717 882.135038,345.473505 883.219017,348.272017 885.110757,347.542296 885.667279,348.997033 892.108994,346.535985 889.319878,338.741642 887.030393,339.546287 885.830883,336.193168 888.120369,335.388523 884.053745,324.019011 869.881978,328.522806 874.140315,340.945881 875.553699,340.467785 877.658510,346.607163 876.245053,347.096336 877.921130,351.981204"/>
    <poly id="397401417" type="building" color="255,230,230" fill="1" layer="-1.00" shape="845.773521,509.206482 855.557475,505.914452 848.279599,484.499221 838.505634,487.780245 845.773521,509.206482"/>
    <poly id="397401421" type="building" color="255,230,230" fill="1" layer="-1.00" shape="813.753859,523.063871 826.423376,518.926768 819.227742,497.080094 810.161059,500.033477 809.791110,498.901200 806.188330,500.073851 813.753859,523.063871"/>
    <poly id="397401422" type="building" color="255,230,230" fill="1" layer="-1.00" shape="875.632474,547.595973 895.676656,541.070484 893.495576,534.454290 892.151945,534.899612 890.438362,529.682186 871.737722,535.773436 875.632474,547.595973"/>
    <poly id="397401423" type="building" color="255,230,230" fill="1" layer="-1.00" shape="830.189288,384.056563 838.478835,381.496857 836.300930,378.923778 832.511464,379.785042 831.425403,375.790211 835.349646,374.065831 834.900141,368.413641 829.237055,370.270600 828.770051,368.794300 825.745475,369.627359 830.189288,384.056563"/>
    <poly id="397401424" type="building" color="255,230,230" fill="1" layer="-1.00" shape="769.296264,487.635941 774.680573,485.876819 774.437176,485.133067 782.389145,482.548956 781.434837,479.662688 779.643449,480.238006 773.090490,460.322968 761.535650,464.090825 769.296264,487.635941"/>
    <poly id="421969736" type="building" color="255,230,230" fill="1" layer="-1.00" shape="349.367947,595.467622 368.853684,589.236734 365.758101,579.668204 346.272352,585.899097 349.367947,595.467622"/>
    <poly id="421969751" type="building" color="255,230,230" fill="1" layer="-1.00" shape="352.560550,634.279867 359.996518,631.603509 355.996655,620.600151 354.921616,620.980822 352.307011,613.796975 345.956078,616.081654 352.560550,634.279867"/>
    <poly id="421969752" type="building" color="255,230,230" fill="1" layer="-1.00" shape="211.128458,604.457292 214.771809,603.140739 214.966955,603.673703 221.407461,601.356312 221.778181,602.377806 225.720175,600.952433 218.129333,580.166940 202.032905,585.977076 208.335889,603.231702 210.406444,602.480893 211.128458,604.457292"/>
    <poly id="421969754" type="building" color="255,230,230" fill="1" layer="-1.00" shape="370.258843,577.847756 374.629109,588.399384 382.555473,585.150242 396.126000,617.871535 401.552960,615.647305 383.612186,572.374372 370.258843,577.847756"/>
    <poly id="421969756" type="building" color="255,230,230" fill="1" layer="-1.00" shape="353.235571,614.556270 358.839973,612.532565 357.727992,609.445917 360.126990,608.586508 358.634515,604.456144 350.611250,607.339129 353.235571,614.556270"/>
    <poly id="421969779" type="building" color="255,230,230" fill="1" layer="-1.00" shape="298.928066,577.204783 314.482055,570.826304 306.044337,550.478303 290.400735,556.889438 293.588186,564.564394 294.952447,563.997297 295.939903,566.385280 294.665235,566.919730 298.928066,577.204783"/>
    <poly id="421971008" type="building" color="255,230,230" fill="1" layer="-1.00" shape="360.479029,606.384499 364.897131,605.050895 363.448359,600.311584 359.030255,601.645189 360.479029,606.384499"/>
    <poly id="421971009" type="building" color="255,230,230" fill="1" layer="-1.00" shape="300.274434,647.851118 307.727423,645.606840 303.449339,631.577683 295.996270,633.833040 300.274434,647.851118"/>
    <poly id="421971010" type="building" color="255,230,230" fill="1" layer="-1.00" shape="368.120268,619.416568 372.777136,618.018064 370.054733,609.094432 365.397790,610.504013 368.120268,619.416568"/>
    <poly id="421971011" type="building" color="255,230,230" fill="1" layer="-1.00" shape="223.371757,677.822041 232.914397,674.937808 226.195522,652.939531 216.652868,655.823769 223.371757,677.822041"/>
    <poly id="421971012" type="building" color="255,230,230" fill="1" layer="-1.00" shape="223.860965,653.057231 234.886245,649.728513 226.786680,623.201848 215.761379,626.530573 223.860965,653.057231"/>
    <poly id="421971013" type="building" color="255,230,230" fill="1" layer="-1.00" shape="292.123514,652.040383 300.283018,649.579174 295.110177,632.653103 291.955811,633.607286 290.079392,627.436270 285.074243,628.943301 292.123514,652.040383"/>
    <poly id="421971014" type="building" color="255,230,230" fill="1" layer="-1.00" shape="335.089131,630.133774 344.960197,627.152076 341.907295,617.129676 340.245553,617.628364 339.526237,615.242128 331.297044,617.725011 335.089131,630.133774"/>
    <poly id="421971015" type="building" color="255,230,230" fill="1" layer="-1.00" shape="288.198562,621.940919 298.666616,618.785850 294.145378,603.968649 288.861583,605.562475 287.840478,602.243811 282.656207,603.805058 288.198562,621.940919"/>
    <poly id="421971016" type="building" color="255,230,230" fill="1" layer="-1.00" shape="298.961038,617.801925 304.563260,616.110490 305.000812,617.542269 312.254845,615.352080 307.383421,599.413818 294.537082,603.295513 298.961038,617.801925"/>
    <poly id="421971017" type="building" color="255,230,230" fill="1" layer="-1.00" shape="263.301411,661.522474 277.441259,657.250420 272.462813,640.968089 264.940169,643.234086 264.434400,641.602479 257.827181,643.597530 263.301411,661.522474"/>
    <poly id="421972838" type="building" color="255,230,230" fill="1" layer="-1.00" shape="280.486420,735.429075 300.868520,727.243322 295.092247,713.005002 274.710129,721.190765 280.486420,735.429075"/>
    <poly id="421972843" type="building" color="255,230,230" fill="1" layer="-1.00" shape="213.320892,679.451275 221.898312,676.859818 214.936427,654.051347 206.358993,656.642810 213.320892,679.451275"/>
    <poly id="421972853" type="building" color="255,230,230" fill="1" layer="-1.00" shape="209.492175,753.375854 228.258912,747.704993 221.520718,725.629051 202.753951,731.299923 206.701548,744.241352 205.736337,744.534136 207.622708,750.705204 208.587918,750.412420 209.492175,753.375854"/>
    <poly id="421979407" type="building" color="255,230,230" fill="1" layer="-1.00" shape="354.890712,759.519749 369.029618,755.380717 364.598905,740.408998 350.449981,744.559047 354.890712,759.519749"/>
    <poly id="421979408" type="building" color="255,230,230" fill="1" layer="-1.00" shape="374.891896,646.986966 380.585790,663.185401 378.804089,663.805146 381.524286,671.543536 389.925170,668.618731 387.965524,663.034232 392.185939,661.555346 392.468715,662.354733 394.240486,661.734925 396.271322,660.983887 395.910621,659.951376 397.891442,659.255396 399.090612,662.674926 401.927346,661.696540 402.463467,663.239737 405.828839,661.910344 406.345751,663.353723 410.615893,661.864091 402.055422,637.538597 374.891896,646.986966"/>
    <poly id="421979411" type="building" color="255,230,230" fill="1" layer="-1.00" shape="391.141955,693.660539 406.088870,688.984057 398.937484,666.351466 383.990617,671.016880 391.141955,693.660539"/>
    <poly id="421979413" type="building" color="255,230,230" fill="1" layer="-1.00" shape="375.913973,700.317973 390.332817,695.903869 383.680413,674.415470 369.271550,678.818571 375.913973,700.317973"/>
    <poly id="421979418" type="building" color="255,230,230" fill="1" layer="-1.00" shape="359.839862,734.651140 376.797823,729.201299 371.959305,714.326605 355.011257,719.776519 359.839862,734.651140"/>
    <poly id="421980066" type="building" color="255,230,230" fill="1" layer="-1.00" shape="285.724902,768.162345 294.900422,765.220380 292.943571,759.203914 310.627987,753.515034 304.436314,734.455534 277.576339,743.086395 285.724902,768.162345"/>
    <poly id="421983537" type="building" color="255,230,230" fill="1" layer="-1.00" shape="315.649435,618.675163 304.628613,622.834610 308.465916,632.884274 310.307708,632.187373 314.760220,643.836132 323.939308,640.362517 315.649435,618.675163"/>
    <poly id="421991281" type="building" color="255,230,230" fill="1" layer="-1.00" shape="248.921039,708.760363 252.951295,707.501729 246.529630,687.144762 242.499368,688.403398 248.921039,708.760363"/>
    <poly id="421991282" type="building" color="255,230,230" fill="1" layer="-1.00" shape="230.750854,752.384629 240.283509,749.500338 232.553443,724.194535 223.020842,727.067756 230.750854,752.384629"/>
    <poly id="421991283" type="building" color="255,230,230" fill="1" layer="-1.00" shape="268.179903,696.169691 274.548763,694.173091 270.676471,681.874593 264.297747,683.860053 268.179903,696.169691"/>
    <poly id="421991284" type="building" color="255,230,230" fill="1" layer="-1.00" shape="259.406786,724.192460 265.838105,740.019036 278.264510,735.026883 271.676845,718.811588 268.490614,720.086799 267.757531,718.287555 259.971031,721.426909 260.860475,723.614866 259.406786,724.192460"/>
    <poly id="421991495" type="building" color="255,230,230" fill="1" layer="-1.00" shape="237.546173,736.766175 250.297170,732.252420 247.156542,723.492240 234.415468,728.006064 237.546173,736.766175"/>
    <poly id="421991497" type="building" color="255,230,230" fill="1" layer="-1.00" shape="242.140917,747.928452 254.021880,744.339488 250.891084,734.072910 239.010113,737.661877 242.140917,747.928452"/>
    <poly id="422188798" type="building" color="255,230,230" fill="1" layer="-1.00" shape="873.663362,687.030640 888.358186,681.455836 884.423361,671.205953 869.738458,676.780827 873.663362,687.030640"/>
    <poly id="422190415" type="building" color="255,230,230" fill="1" layer="-1.00" shape="872.646081,589.469334 888.102183,584.431223 885.512173,576.571724 870.056136,581.598762 872.646081,589.469334"/>
    <poly id="422190416" type="building" color="255,230,230" fill="1" layer="-1.00" shape="816.717175,714.514996 822.683366,722.429888 842.124222,707.924962 836.158036,700.010060 816.717175,714.514996"/>
    <poly id="422190417" type="building" color="255,230,230" fill="1" layer="-1.00" shape="855.552833,615.443200 865.713459,610.735807 862.697038,604.291359 852.536407,608.998754 855.552833,615.443200"/>
    <poly id="422190418" type="building" color="255,230,230" fill="1" layer="-1.00" shape="852.886481,721.974775 871.981744,713.216555 866.292524,700.939144 847.187316,709.697307 852.886481,721.974775"/>
    <poly id="422190420" type="building" color="255,230,230" fill="1" layer="-1.00" shape="833.934755,725.516726 848.136164,714.920781 843.371107,708.597770 829.169696,719.193721 833.934755,725.516726"/>
    <poly id="422190422" type="building" color="255,230,230" fill="1" layer="-1.00" shape="876.245733,600.857933 892.259105,595.646259 888.968072,585.655378 872.954690,590.867056 876.245733,600.857933"/>
    <poly id="422190426" type="building" color="255,230,230" fill="1" layer="-1.00" shape="803.077984,616.815430 813.490602,613.051190 810.310024,604.379212 799.897327,608.154532 803.077984,616.815430"/>
    <poly id="422190430" type="building" color="255,230,230" fill="1" layer="-1.00" shape="869.625155,580.687620 885.121062,575.638690 882.969192,569.111305 867.483209,574.160303 869.625155,580.687620"/>
    <poly id="422190432" type="building" color="255,230,230" fill="1" layer="-1.00" shape="812.811027,675.697896 820.284544,673.365440 816.616733,661.765947 809.143210,664.098406 812.811027,675.697896"/>
    <poly id="422190435" type="building" color="255,230,230" fill="1" layer="-1.00" shape="783.912037,593.970787 800.428465,593.813384 800.121645,580.042735 792.256556,579.991092 792.235684,583.170036 784.114145,582.850869 783.912037,593.970787"/>
    <poly id="422190437" type="building" color="255,230,230" fill="1" layer="-1.00" shape="867.518679,573.296535 882.875273,568.290994 879.808044,558.999434 865.396966,563.689962 865.971230,565.466046 863.841406,566.160974 865.779106,572.033409 866.983338,571.642553 867.518679,573.296535"/>
    <poly id="422190439" type="building" color="255,230,230" fill="1" layer="-1.00" shape="857.970447,654.073301 872.115769,649.004405 867.648348,636.679640 861.197799,638.996638 864.211769,647.324150 860.807346,648.542395 857.783444,640.214819 853.503015,641.748541 857.970447,654.073301"/>
    <poly id="422190440" type="building" color="255,230,230" fill="1" layer="-1.00" shape="855.918172,723.069160 860.397736,730.520148 865.362805,727.562002 865.195805,727.283981 870.180810,724.314892 869.856669,723.769991 875.360103,720.494157 871.381542,713.877227 855.918172,723.069160"/>
    <poly id="422198809" type="building" color="255,230,230" fill="1" layer="-1.00" shape="755.226886,643.030563 770.862931,637.794107 768.690354,631.388453 765.595022,632.420445 762.750314,624.016531 759.157286,625.222489 758.650707,623.723777 755.794219,624.679801 756.904793,627.965863 755.352125,628.487366 754.280401,625.334482 749.751787,626.855533 755.226886,643.030563"/>
    <poly id="422198810" type="building" color="255,230,230" fill="1" layer="-1.00" shape="739.152284,707.536855 745.630093,705.596591 751.233215,703.772436 753.104451,703.131177 755.500772,702.681673 758.028269,703.429340 759.616695,705.023767 760.529303,708.208839 762.087265,714.444304 763.511360,719.892429 750.436585,723.772159 746.637930,713.944139 741.573680,715.373062 739.152284,707.536855"/>
    <poly id="422198811" type="building" color="255,230,230" fill="1" layer="-1.00" shape="669.738520,711.490185 663.103755,691.929126 634.847550,701.403004 641.579698,721.263763 638.932291,722.143644 642.020601,731.269126 649.564799,728.748725 648.902300,726.794842 662.428269,722.253349 663.791587,721.830286 664.444371,723.750875 669.739262,721.980049 670.059998,723.045538 686.031221,718.165640 682.734489,707.510162 669.738520,711.490185"/>
    <poly id="422198813" type="building" color="255,230,230" fill="1" layer="-1.00" shape="556.346670,709.949723 568.757859,705.788523 563.272768,689.591361 550.861566,693.752566 556.346670,709.949723"/>
    <poly id="422198815" type="building" color="255,230,230" fill="1" layer="-1.00" shape="683.266520,670.295144 698.574062,665.167215 690.565828,641.520822 675.258261,646.648761 683.266520,670.295144"/>
    <poly id="422198816" type="building" color="255,230,230" fill="1" layer="-1.00" shape="469.685774,743.831881 476.194905,741.647993 467.728341,716.658444 461.219199,718.842337 469.685774,743.831881"/>
    <poly id="422198817" type="building" color="255,230,230" fill="1" layer="-1.00" shape="712.597446,660.507190 728.641550,655.129359 720.263122,630.394977 704.218991,635.772819 712.597446,660.507190"/>
    <poly id="422198818" type="building" color="255,230,230" fill="1" layer="-1.00" shape="662.312055,767.247103 671.129593,764.391679 664.226464,743.355624 655.418844,746.211119 662.312055,767.247103"/>
    <poly id="422198819" type="building" color="255,230,230" fill="1" layer="-1.00" shape="487.757163,709.367910 505.801565,703.327193 497.412953,678.570750 479.368521,684.611480 487.757163,709.367910"/>
    <poly id="422198820" type="building" color="255,230,230" fill="1" layer="-1.00" shape="606.124594,698.755721 616.275475,695.510222 610.182011,676.683819 600.041048,679.929387 606.124594,698.755721"/>
    <poly id="422198822" type="building" color="255,230,230" fill="1" layer="-1.00" shape="484.098656,737.291075 492.208929,734.763207 484.698048,710.942976 476.587762,713.470849 484.098656,737.291075"/>
    <poly id="422198824" type="building" color="255,230,230" fill="1" layer="-1.00" shape="735.883106,698.742468 742.282783,696.602305 734.976138,675.020793 728.576378,677.172037 735.883106,698.742468"/>
    <poly id="422198826" type="building" color="255,230,230" fill="1" layer="-1.00" shape="718.385533,706.182141 735.424892,700.467464 726.783400,674.967040 709.753941,680.681794 718.385533,706.182141"/>
    <poly id="422198827" type="building" color="255,230,230" fill="1" layer="-1.00" shape="552.499914,686.208824 576.177714,678.277702 567.769795,653.454621 544.091882,661.396836 552.499914,686.208824"/>
    <poly id="422198829" type="building" color="255,230,230" fill="1" layer="-1.00" shape="461.594236,717.681712 476.115370,712.814220 468.174966,689.367808 453.653809,694.235309 461.594236,717.681712"/>
    <poly id="422198830" type="building" color="255,230,230" fill="1" layer="-1.00" shape="662.433521,650.253300 675.601276,645.831317 667.787677,622.784371 654.619974,627.195286 662.433521,650.253300"/>
    <poly id="422198831" type="building" color="255,230,230" fill="1" layer="-1.00" shape="748.693674,695.780374 758.566978,692.466706 749.681985,666.244666 739.808663,669.558341 748.693674,695.780374"/>
    <poly id="422198834" type="building" color="255,230,230" fill="1" layer="-1.00" shape="619.954074,667.598296 642.248553,660.123464 633.879746,635.411361 624.364734,638.605629 625.183157,641.014686 612.393650,645.306277 619.954074,667.598296"/>
    <poly id="422198835" type="building" color="255,230,230" fill="1" layer="-1.00" shape="769.914376,688.498105 785.281664,683.348520 777.429294,660.190474 765.784387,664.090654 764.079466,659.061610 760.357132,660.299949 769.914376,688.498105"/>
    <poly id="422198836" type="building" color="255,230,230" fill="1" layer="-1.00" shape="576.523132,704.388297 580.952172,702.899763 578.847720,696.693974 582.161999,695.585833 578.566821,684.994893 570.823422,687.602648 576.523132,704.388297"/>
    <poly id="422198837" type="building" color="255,230,230" fill="1" layer="-1.00" shape="686.685488,744.089963 699.853082,739.679083 700.993015,743.031795 716.698645,737.762501 710.512199,719.511433 681.629084,729.180479 686.685488,744.089963"/>
    <poly id="422198838" type="building" color="255,230,230" fill="1" layer="-1.00" shape="699.569491,711.752264 714.668014,706.689447 707.468384,685.440962 693.803112,690.014726 698.313868,703.325556 696.880670,703.803542 699.569491,711.752264"/>
    <poly id="422198839" type="building" color="255,230,230" fill="1" layer="-1.00" shape="690.519807,640.966673 703.976152,636.457996 696.289299,613.777401 691.302862,615.450548 694.761482,625.652934 686.291559,628.488470 690.519807,640.966673"/>
    <poly id="422198840" type="building" color="255,230,230" fill="1" layer="-1.00" shape="844.568306,707.763789 857.860407,702.556350 849.400590,682.695190 833.307501,689.479317 838.426752,700.844658 841.494538,699.469119 844.568306,707.763789"/>
    <poly id="422198842" type="building" color="255,230,230" fill="1" layer="-1.00" shape="600.321964,740.134366 607.985676,737.559339 608.745600,739.801858 613.940952,738.063588 606.975009,717.503465 594.115927,721.816771 600.321964,740.134366"/>
    <poly id="422198846" type="building" color="255,230,230" fill="1" layer="-1.00" shape="646.724780,646.893711 650.915006,645.481174 650.116087,643.127627 653.649369,641.943401 652.061245,637.269602 656.062357,635.922289 653.499902,628.384253 641.785276,632.317322 646.724780,646.893711"/>
    <poly id="422198848" type="building" color="255,230,230" fill="1" layer="-1.00" shape="728.665343,606.091916 718.583002,609.470699 725.285791,629.253772 748.147687,621.594538 743.315563,607.317888 743.574341,607.230971 738.255049,591.522201 725.206745,595.889520 728.665343,606.091916"/>
    <poly id="422198849" type="building" color="255,230,230" fill="1" layer="-1.00" shape="590.222619,676.386916 603.758549,671.845424 597.172151,652.461953 583.646134,657.003517 587.796696,669.226405 593.101600,667.444534 593.764039,669.409491 588.459135,671.191361 590.222619,676.386916"/>
    <poly id="422206420" type="building" color="255,230,230" fill="1" layer="-1.00" shape="575.310524,622.654743 578.774072,621.503270 577.157214,616.663139 581.974304,615.066377 580.006689,609.193794 571.726118,611.930954 567.898154,600.485571 559.269210,603.342306 570.110228,635.757932 578.739153,632.901205 575.310524,622.654743"/>
    <poly id="422206421" type="building" color="255,230,230" fill="1" layer="-1.00" shape="578.629017,728.571958 564.833150,733.388696 569.094025,745.446147 565.421100,746.729174 561.160221,734.671724 549.574096,738.716486 554.868330,753.727162 559.138461,752.237580 560.727692,756.745221 585.522374,748.090356 578.629017,728.571958"/>
    <poly id="422206422" type="building" color="255,230,230" fill="1" layer="-1.00" shape="688.760859,586.622770 693.289987,585.024161 692.714611,583.414232 696.318010,582.141862 696.893386,583.751791 700.357466,582.522816 697.197971,573.651623 698.790583,573.097144 695.250616,563.182226 680.667747,568.337067 684.597832,579.340079 685.981463,578.850690 688.760859,586.622770"/>
    <poly id="422206424" type="building" color="255,230,230" fill="1" layer="-1.00" shape="536.976352,612.080067 535.689432,608.416256 541.353163,606.437327 538.788965,599.154076 518.284065,606.319572 522.067275,617.022491 522.349972,617.832957 524.573706,624.028438 542.580193,617.732752 542.921457,618.698679 553.840741,614.893236 555.781494,614.252403 553.129454,606.735957 552.930406,606.801116 551.011414,601.083933 542.412339,603.929797 544.321331,609.657990 536.976352,612.080067"/>
    <poly id="422206426" type="building" color="255,230,230" fill="1" layer="-1.00" shape="740.851277,642.338070 745.994783,640.942897 743.317530,631.233008 738.174021,632.628183 740.851277,642.338070"/>